<NUMBER OF ZONES> 2
<TOTAL OD FLOW> 4000
<END OF METADATA>


Origin  1
4 :      4000.0;
